27
	Energy:      75.7131991
C         -1.10837        1.09965        0.00419
C         -1.31324       -0.26504       -0.01083
C         -2.17781        2.13903        0.01553
H         -2.80936        2.03501       -0.89131
H         -1.72349        3.15186        0.02671
H         -2.80951        2.01509        0.91975
C         -0.05871       -0.83237       -0.01695
C          0.83453        0.22371       -0.00525
C          2.30548        0.11719       -0.00627
C          3.13270        1.38582        0.00767
C          4.64076        1.27090        0.00665
H          2.84877        1.96154        0.91420
H          2.84902        1.98113       -0.88619
O          0.17886        1.36377        0.00721
O          2.81898       -0.98931       -0.01832
H         -2.26243       -0.78445       -0.01663
H          0.17419       -1.88907       -0.02854
C          5.45028        0.13987       -0.00546
C          6.74813        0.59858       -0.00030
H          5.16977       -0.90145       -0.01676
C          6.66227        1.97311        0.01455
H          7.64875       -0.00125       -0.00665
C          7.81055        2.92586        0.02502
H          8.77591        2.37677        0.01923
H          7.75905        3.55636        0.93676
H          7.75932        3.57591       -0.87291
O          5.40321        2.34371        0.01837
