15
	Energy:      37.8896473
C         -2.49981        2.70415       -0.05572
C         -2.14313        1.38334        0.13891
C         -0.76673        1.36774        0.17806
C         -0.37114        2.67871        0.00467
C          1.01635        3.15409       -0.02491
C         -3.89284        3.23079       -0.16781
O         -1.42330        3.45475       -0.13253
H         -2.80537        0.53362        0.24022
H         -0.13001        0.50375        0.31632
O          1.25715        4.33950       -0.18487
H          1.83503        2.45210        0.09556
O         -4.11396        4.16374        0.85117
H         -4.61884        2.39242       -0.07505
H         -4.00326        3.71809       -1.16136
H         -5.03647        4.50394        0.71652
