28
	Energy:      82.6239852
C          0.26226        0.67431       -0.69208
C          1.33626        1.58527       -0.69454
C          0.23769       -0.81556       -0.84255
H          1.20916       -1.27217       -1.04909
H         -0.41021       -1.06969       -1.70710
H         -0.19639       -1.27143        0.07130
C          3.48975        0.14016       -0.65134
C          4.82918        0.41633       -0.81377
O          5.00324        1.69453       -1.02993
C          5.94460       -0.57323       -0.74833
H          5.55392       -1.59391       -0.55087
H          6.64225       -0.28994        0.06685
H          6.49197       -0.57693       -1.71363
O         -0.87055        1.32990       -0.56928
C          3.83262        2.29040       -1.01295
C          2.81765        1.34828       -0.78759
C         -0.62044        2.61124       -0.50306
C          0.73409        2.83187       -0.58311
H          1.18931        3.80489       -0.54605
C         -1.67532        3.65750       -0.36203
H         -2.36886        3.60152       -1.22651
H         -1.22200        4.67080       -0.32771
H         -2.24394        3.48461        0.57512
H          3.10919       -0.84021       -0.43998
C          3.71283        3.76431       -1.22742
H          4.71674        4.19768       -1.41996
H          3.31222        4.25152       -0.31624
H          3.06577        3.96967       -2.10552
