# avogadro generated ORCA input file
# Basic Mode
# bpath_HMF01-GeomOpt
! B3LYP RIJCOSX D3 ma-def2-TZVP def2/J Opt TIGHTSCF Grid3 FinalGrid5
! Normalprint
%output
Print[ P_Basis ] 2
Print[ P_MOs ] 1
End 

* xyz 0 1
   C        0.16315        0.75973       -0.78273
   C        1.25764        1.60232       -0.56617
   C        0.14067       -0.66592       -1.23489
   H        1.14815       -1.04270       -1.48445
   H       -0.45317       -0.73034       -2.17017
   H       -0.33965       -1.30133       -0.46222
   C        3.46053        0.20849       -0.27563
   C        4.78315        0.53760       -0.53493
   O        4.85916        1.77554       -0.96368
   C        5.98758       -0.32842       -0.33853
   H        5.71218       -1.33373        0.04038
   H        6.67125        0.15290        0.39105
   H        6.51510       -0.44743       -1.30747
   C        3.00656       -1.08952        0.32458
   H        1.93449       -1.07406        0.58716
   H        3.54871       -1.25388        1.27916
   H        3.22837       -1.92944       -0.36636
   O       -0.95110        1.44073       -0.62587
   C        3.65090        2.28734       -1.00453
   C        2.71945        1.34059       -0.61102
   H        3.43590        3.29733       -1.32817
   C       -0.65097        2.68604       -0.34301
   C        0.71585        2.84848       -0.31140
   H        1.25168        3.76616       -0.10519
   C       -1.65936        3.75854       -0.10419
   H       -2.68491        3.34384       -0.19701
   H       -1.52703        4.56874       -0.85127
   H       -1.52756        4.17444        0.91645
*
