# avogadro generated ORCA input file
# Basic Mode
# formic_acid-GeomOpt
! B3LYP RIJCOSX D3 ma-def2-TZVP def2/J Opt TIGHTSCF Grid3 FinalGrid5
! Normalprint
%output
Print[ P_Basis ] 2
Print[ P_MOs ] 1
End 

* xyz 0 1
   C       -1.46916        1.87696        0.00000
   O       -1.47137        3.09644        0.00000
   O       -0.30055        1.20743        0.00000
   H       -2.41024        1.33592       -0.00000
   H       -0.28793        0.24048        0.00000
*
