12
Coordinates from ORCA-job go_pyran E -269.267367539614
  O       0.000000      0.000000      0.000000
  C      -1.087738     -0.844925     -0.001526
  H       1.864799     -0.134277     -0.892841
  C      -0.968523     -2.217479     -0.001029
  H      -1.855698     -2.842256     -0.001451
  H       1.867834     -0.132782      0.886062
  C       0.275407     -2.787510     -0.000165
  H       0.370647     -3.870323      0.000819
  H      -2.038262     -0.290235     -0.002222
  C       1.365202     -2.026383     -0.000793
  C       1.354993     -0.511668     -0.002202
  H       2.347582     -2.492186     -0.000343
12
Coordinates from ORCA-job go_pyran E -269.275197359235
  O       0.000000      0.000000     -0.000000
  C      -1.077668     -0.828708     -0.001335
  H       1.855551     -0.128108     -0.890137
  C      -0.984250     -2.174202     -0.001242
  H      -1.885883     -2.770685     -0.001882
  H       1.858688     -0.126191      0.882839
  C       0.299551     -2.781035     -0.000158
  H       0.386730     -3.861436      0.000835
  H      -2.002248     -0.270855     -0.001858
  C       1.402022     -2.028308     -0.000573
  C       1.352166     -0.524830     -0.002282
  H       2.387686     -2.481560      0.000003
12
Coordinates from ORCA-job go_pyran E -269.276332731442
  O       0.000000     -0.000000     -0.000000
  C      -1.068805     -0.826285     -0.001316
  H       1.845390     -0.122868     -0.887275
  C      -0.992095     -2.159251     -0.001586
  H      -1.900504     -2.742539     -0.002374
  H       1.848918     -0.120413      0.879151
  C       0.312154     -2.784284     -0.000222
  H       0.393152     -3.863817      0.000934
  H      -1.991177     -0.263367     -0.001590
  C       1.416338     -2.034016     -0.000379
  C       1.346701     -0.534686     -0.002434
  H       2.404401     -2.477194      0.000498
12
Coordinates from ORCA-job go_pyran E -269.276405034894
  O      -0.000000     -0.000000      0.000000
  C      -1.067399     -0.828055     -0.001468
  H       1.844335     -0.123186     -0.886218
  C      -0.995212     -2.162037     -0.001911
  H      -1.903965     -2.744500     -0.002781
  H       1.848356     -0.120273      0.877115
  C       0.314922     -2.789506     -0.000280
  H       0.393629     -3.869258      0.001096
  H      -1.991000     -0.265346     -0.001624
  C       1.417003     -2.037643     -0.000277
  C       1.345510     -0.538351     -0.002663
  H       2.406807     -2.476850      0.000940
12
Coordinates from ORCA-job go_pyran E -269.276420364893
  O      -0.000000     -0.000000      0.000000
  C      -1.066831     -0.829445     -0.001746
  H       1.844830     -0.124181     -0.886091
  C      -0.996737     -2.164309     -0.002332
  H      -1.904829     -2.747441     -0.003348
  H       1.849559     -0.120642      0.875501
  C       0.315808     -2.792179     -0.000308
  H       0.392130     -3.872103      0.001370
  H      -1.991536     -0.268143     -0.001879
  C       1.415957     -2.038907     -0.000162
  C       1.345410     -0.539908     -0.003039
  H       2.407131     -2.475480      0.001483
12
Coordinates from ORCA-job go_pyran E -269.276422959141
  O       0.000000     -0.000000     -0.000000
  C      -1.066614     -0.829794     -0.002075
  H       1.845055     -0.124936     -0.886747
  C      -0.996849     -2.164743     -0.002754
  H      -1.904443     -2.748565     -0.003956
  H       1.850524     -0.120737      0.874541
  C       0.315854     -2.792634     -0.000295
  H       0.390584     -3.872646      0.001699
  H      -1.991913     -0.269446     -0.002262
  C       1.415270     -2.038839     -0.000051
  C       1.345557     -0.540101     -0.003466
  H       2.407069     -2.474299      0.001991
12
Coordinates from ORCA-job go_pyran E -269.276423769594
  O      -0.000000     -0.000000     -0.000000
  C      -1.066498     -0.829785     -0.002546
  H       1.844749     -0.125668     -0.887924
  C      -0.996594     -2.164651     -0.003327
  H      -1.903871     -2.748977     -0.004808
  H       1.851232     -0.120554      0.873465
  C       0.315816     -2.792664     -0.000253
  H       0.389375     -3.872736      0.002178
  H      -1.992138     -0.270021     -0.002843
  C       1.415017     -2.038706      0.000098
  C       1.345626     -0.540074     -0.004070
  H       2.407155     -2.473530      0.002654
