# Basic Mode
# quinone-GeomOpt
! B3LYP RIJCOSX D3 ma-def2-TZVP def2/J Opt TIGHTSCF
! Normalprint
%output
  Print[ P_Basis ] 2
  Print[ P_MOs ] 1
end
%geom
Constraints
  {C 13 C}
end
end
* xyz 0 1
C     -0.1268860000    4.1124970000    0.0000750000
C     -1.3501330000    3.2866440000    0.0000880000
H     -2.1955070000    1.3449340000    0.0000730000
H      4.5125310000    4.0931060000   -0.0000350000
C      2.3584390000    4.1623420000    0.0000160000
C     -1.2981450000    1.9526980000    0.0000630000
C      2.4693310000    1.3698740000   -0.0000370000
C      3.5932070000    3.5115020000   -0.0000250000
C     -0.0143650000    1.2239440000    0.0000200000
C      3.6487500000    2.1176110000   -0.0000510000
H     -2.2914080000    3.8241200000    0.0001200000
C      1.2289210000    2.0206150000    0.0000040000
H      2.3219290000    5.2504030000    0.0000360000
O      0.0000000000    0.0000000000    0.0000000000
C      1.1740260000    3.4147670000    0.0000310000
H      4.6119570000    1.6117750000   -0.0000820000
O     -0.2071710000    5.3339060000    0.0001010000
H      2.5204870000    0.2822730000   -0.0000570000
*
