# avogadro generated ORCA input file
# Basic Mode
# bpath_HMF03
! PBE0 RIJK D3BJ def2-TZVP def2/JK TIGHTSCF Opt
! Normalprint
%output
Print[ P_Basis ] 2
Print[ P_MOs ] 1
End 

* xyz 0 1
   C       -0.07278       -0.78834        0.65725
   C        1.31566       -0.83143        0.36201
   C        2.27159        0.08664        0.19959
   C       -0.97841        0.25026        0.89329
   O        3.41705       -0.55651       -0.07013
   O       -2.15932       -0.25848        1.12097
   C       -2.12881       -1.56588        1.05830
   C       -0.81147       -1.97949        0.76209
   C        1.96813       -2.04770        0.17177
   C       -0.14753       -3.23381        0.56776
   C        1.23151       -3.26707        0.27488
   C        3.24038       -1.74427       -0.08395
   C       -3.41860       -2.28134        1.30015
   H       -4.16212       -1.93812        0.55095
   H       -3.79008       -2.01373        2.31125
   H       -3.39028       -3.35533        1.24807
   C       -0.54900       -4.57842        0.59466
   C        1.55666       -4.62821        0.14747
   O        0.48089       -5.34354        0.34400
   C        2.83625       -5.33422       -0.15350
   H        3.58063       -5.15207        0.64121
   H        3.19912       -5.07421       -1.16324
   H        2.65593       -6.43014       -0.16267
   C       -1.86602       -5.21907        0.84540
   H       -2.58696       -4.91570        0.05927
   H       -2.20257       -4.99416        1.87784
   H       -1.76281       -6.32281        0.77597
   C        4.36650       -2.64397       -0.36057
   H        5.29020       -2.04935       -0.53008
   H        4.18732       -3.20509       -1.29383
   H        4.56960       -3.28299        0.51599
   C       -0.80320        1.73005        0.91984
   H       -0.49139        2.09952       -0.07309
   H       -0.11060        2.02213        1.72893
   H       -1.77773        2.21204        1.14647
   C        2.25222        1.57810        0.26795
   H        3.27389        1.96444        0.06874
   H        1.97876        1.91506        1.28354
   H        1.59786        1.99278       -0.51918
*
