20
	Energy:     130.6842785
C         -2.60044        0.79757        0.33465
C         -1.00550       -0.73177        0.33836
C         -0.47630        0.53997        0.47536
C          0.99607        1.01519        0.55609
C          2.48445        1.43766        0.71749
H          0.71052        1.49856        1.50942
H          0.90090        1.64151       -0.36255
O         -1.45115        1.42616        0.47312
C         -2.39090       -0.55611        0.24368
H         -3.55353        1.32077        0.26918
H         -3.11188       -1.32069        0.10744
H         -0.45255       -1.65818        0.28997
O          2.67732        2.63362        0.83620
C          3.68105        0.49405        0.68513
C          5.02048        1.26696        0.85129
H          3.68926       -0.03460       -0.26240
H          3.64075       -0.26225        1.51169
H          5.10837        2.01529        0.02833
H          5.90231        0.55136        0.80690
H          5.03299        1.77682        1.83270
