# avogadro generated ORCA input file
# Basic Mode
# bpath_HMF02
! B3LYP RIJCOSX D3 ma-def2-TZVP def2/J Opt TIGHTSCF Grid3 FinalGrid5
! Normalprint
%output
Print[ P_Basis ] 2
Print[ P_MOs ] 1
End 

* xyz 0 1
   C       -0.32283       -1.04847        0.25943
   C        1.05540       -1.00699        0.12449
   O        1.79010        0.06551       -0.02213
   O       -1.12144       -0.01486        0.26239
   C        3.04280       -0.32011       -0.11465
   C       -2.34698       -0.45614        0.41116
   C       -2.35921       -1.85154        0.51160
   C       -1.01094       -2.24639        0.41054
   C        1.81770       -2.15937        0.13345
   C       -0.24881       -3.46225        0.42401
   C        1.15624       -3.41103        0.28579
   C        3.13389       -1.71143       -0.02443
   C        4.17521        0.64014       -0.29134
   H        3.78901        1.68027       -0.32833
   H        4.70827        0.42204       -1.24017
   H        4.88068        0.55011        0.56084
   C       -3.52440        0.46921        0.45809
   H       -4.48048       -0.07614        0.58845
   H       -3.57382        1.04640       -0.48837
   H       -3.40194        1.17409        1.30633
   C       -3.63492       -2.61880        0.68838
   H       -4.30664       -2.41634       -0.17194
   H       -4.13471       -2.28861        1.62302
   H       -3.51495       -3.69076        0.75318
   C       -0.55055       -4.82396        0.54975
   C        1.59478       -4.73337        0.33779
   O        0.55971       -5.52239        0.49305
   C        2.96906       -5.30080        0.24642
   H        3.58849       -4.93786        1.08665
   H        3.41360       -5.06756       -0.73815
   H        2.91897       -6.40692        0.32984
   C       -1.85071       -5.52387        0.72408
   H       -2.49600       -5.34325       -0.15953
   H       -2.31981       -5.21249        1.67947
   H       -1.67882       -6.61930        0.78550
   C        4.41781       -2.47837       -0.09278
   H        5.28517       -1.80046       -0.22402
   H        4.40858       -3.15390       -0.96740
   H        4.58290       -3.02435        0.85382
*
