# avogadro generated ORCA input file
# Basic Mode
# bpath_HMF02
! B3LYP RIJCOSX D3 ma-def2-TZVP def2/J Opt TIGHTSCF Grid3 FinalGrid5
! Normalprint
%output
Print[ P_Basis ] 2
Print[ P_MOs ] 1
End 

* xyz 0 1
   C       -0.47219       -1.04667        0.47105
   C        0.91319       -0.98146        0.33937
   O        1.64878        0.10053        0.31912
   O       -1.31149       -0.00997        0.57825
   C        2.90291       -0.27278        0.17846
   C       -2.62488       -0.44898        0.54151
   C       -2.56364       -2.00112        0.71794
   C       -1.11373       -2.26161        0.48310
   C        1.68434       -2.12916        0.20464
   C       -0.35882       -3.44557        0.33422
   C        1.03048       -3.39430        0.19399
   C        2.99582       -1.66535        0.09909
   C        4.03631        0.69996        0.11499
   H        3.65189        1.73758        0.20406
   H        4.56651        0.59606       -0.85461
   H        4.74397        0.50698        0.94802
   C       -3.22715       -0.05526       -0.80990
   H       -3.23311        0.03235        1.33957
   H       -4.27814       -0.40865       -0.87508
   H       -2.64351       -0.50191       -1.64360
   H       -3.21846        1.05005       -0.91880
   C       -2.92546       -2.36712        2.16736
   H       -3.23212       -2.52835        0.00291
   H       -3.98604       -2.10328        2.36518
   H       -2.28444       -1.81105        2.88626
   H       -2.79933       -3.44059        2.37487
   C       -0.71537       -4.78317        0.26122
   C        1.43453       -4.72413        0.06341
   O        0.37274       -5.50505        0.10330
   C        2.79963       -5.29391       -0.11393
   H        3.42990       -5.05362        0.76255
   H        3.24495       -4.92853       -1.05761
   H        2.73334       -6.39996       -0.18453
   C       -2.08082       -5.39099        0.29029
   H       -2.69836       -4.96678       -0.52816
   H       -2.57493       -5.22922        1.26104
   H       -2.00147       -6.48825        0.14166
   C        4.27241       -2.42879       -0.06653
   H        5.14524       -1.74667       -0.11356
   H        4.25359       -2.99282       -1.01703
   H        4.42807       -3.09475        0.80267
*
