27
	Energy:     138.9476970
C         -0.30611       -1.02646        0.24427
C          1.09569       -0.97188        0.09667
O          1.82399        0.08811       -0.06044
O         -1.15963       -0.03839        0.26136
C          3.09647       -0.35067       -0.14960
C         -2.36782       -0.56583        0.44666
C         -2.29138       -1.95112        0.51937
C         -0.96370       -2.24513        0.39146
C          1.83017       -2.15191        0.14608
C         -0.20790       -3.43386        0.40769
C          1.16728       -3.39981        0.28863
C          3.13510       -1.75533       -0.03687
C          4.23069        0.62679       -0.34020
H          3.90294        1.66732       -0.41386
H          4.70674        0.36700       -1.27919
H          4.95628        0.61787        0.50554
C         -3.59146        0.29994        0.55589
H         -4.47679       -0.30926        0.76091
H         -3.67093        0.90211       -0.36245
H         -3.47034        1.00618        1.40855
C         -0.56779       -4.76072        0.53916
C          1.60792       -4.70781        0.32843
O          0.53489       -5.49046        0.49410
H         -3.06304       -2.66761        0.62421
H         -1.56294       -5.16119        0.68340
H          2.61678       -5.05321        0.25690
H          4.03005       -2.42645       -0.06812
