41
	Energy:     626.9214197
C         -0.44032       -1.06399        0.50816
C          0.94763       -0.99784        0.41642
O          1.67720        0.08743        0.43550
O         -1.27044       -0.02266        0.61596
C          2.93608       -0.27561        0.32730
C         -2.58906       -0.43932        0.60670
C         -2.55186       -2.00346        0.63826
C         -1.08787       -2.27639        0.47921
C          1.72596       -2.14194        0.28813
C         -0.31714       -3.46025        0.33581
C          1.06054       -3.40533        0.24487
C          3.04152       -1.66658        0.23066
C          4.06249        0.70770        0.31343
H          3.66634        1.74059        0.40609
H          4.62297        0.62359       -0.64096
H          4.74592        0.50852        1.16503
C         -3.26911        0.09304       -0.65597
H         -3.12283       -0.02388        1.49058
H         -4.32916       -0.23746       -0.68411
H         -2.74877       -0.27874       -1.56478
H         -3.24400        1.20342       -0.65802
C         -3.06591       -2.51728        1.99127
H         -3.14874       -2.43476       -0.19335
H         -4.13177       -2.23140        2.11700
H         -2.47901       -2.07842        2.82734
H         -3.00449       -3.61436        2.06825
C         -0.60997       -4.73575        0.23284
C          1.41724       -4.66697        0.13369
O          0.42431       -5.35586        0.16876
C          2.78763       -5.17415       -0.00347
H          3.37754       -4.94000        0.90183
H          3.24317       -4.80408       -0.94030
H          2.75831       -6.28149       -0.08347
C         -1.96832       -5.30650        0.27729
H         -2.71986       -4.63894       -0.18297
H         -2.23668       -5.56079        1.32231
H         -1.97779       -6.25156       -0.30518
C          4.33867       -2.40489        0.09457
H          5.19956       -1.70653        0.08335
H          4.36669       -2.95406       -0.86418
H          4.48788       -3.07574        0.96050
